_

.

...:..;1.1.3]3;

३

Die panamerikanische I

o

Ewe; है mob 11111118,

V o r u n 3 c r c :1 ii 9 r r c a p c a
deL
Dr. Max Jordan.
V’

'८ '

गं,

mlutenfrezsviei m मैं "land
a

"दृ

n

'

:

१।

7

den.

Lu

p

‘

n

)

है

५

>

६,

C‘

.;rn:‘uuio Lia आगृहंआ५ष… ्ट:.६'त्मा१३।९५1:.-हुँ6८. ,ochwnn. cf‘
.

'१.

V ०" ' “‘

दृष्ट Wu .‘II

id| e- .

Alinde छि। du .'
. -.
Induabuib

m८ m
-"‘1'“0- 51m1mym:”
'श्या PervWU
” .Mbenv हैं… ७३५ A:
we था] I; u.
“13‘ हुँ-द्देट्वेट्वेंश्यस्थि

^८ L150
die holdtnizaf
D" in konun:
‘1 Sam bum
AC; der ०1
Jcr Arena
,uegen span'm:
" 1 d धा 1 ch 11 c h c n I
ten Zuschauev

'amm uuat-‘c5
dcr Ucrichle (ll/ex
icb duu Uuu- z

I belurdilan, rim
Hone: Ilu: Viv“;

in ﬁbrigen ls! LU.“
» wetter n! c:lz‘
imlungen g, to u .‘
:dustrinljalcm g
c h । :i c u m i है दृ e l e ; R ‘

MUSICTODAY
me“

.‘rcut mum ‘
I

ammﬁuig,

c g r a J hr.) ,
u 'J on

*w‘r

7
NHL! Luiu‘ll .\|i

३
nach
o Aulage

V
'

181’ lilli'tu

I

.३ I

. जाब
" , --

’

»

‘ zur "८1८३1
७१५-४'
‘
है
. . N ew, from

ICU u‘um‘c.
1
chta obuo

.

L‘f‘u‘ '1.९ '
Ab

A

ur

.

दृ

L‘ 2

u

णोंम्भ s

14 रू"

Uau tiLCf आगाह'
इ13धादृ९ “may.
1७3९1 be! bl

५

-1: L!

his “mung-“l

druixtcu. भाशा,

. lungsbckundm
.dc ibsle sich a
‘Ibauischen Konh
iedigcndcn Bow
in Schnjppchm

maestro Ali Akbar Khan

l nolwondﬁg L
I u d ua tr l e
be I i c r m n a । c

weaves a magic spell.

' w ._.

. H

. ﬂ.

'IUO
n
hB
UO
अं
शो
!
u u d e ’ ﬂu! div

In a series of I‘tLOI’dlIth
U

verlamcn konn
made in America in the 19605.

a, W है

‘,b 11, “wiht‘u
:amschcn Nachbar

chcmaligc pom
K113 30? F053}! 7U
hen Gcgcnsutz t
M gunz an: ईई.
sigh dam n [त्मा
benso {0r sic!) ८३
'hulb dm Stash-L
‘L; grim: and :11
icfg‘nuigi-n 1105:
aniwhcn Utm
v .’crus ७ .1.
(hr.
um] die HoL’u

Now remastered and brought

i n S k if 11 रा:

I
home to India for the first time.

Rc tt uil g s v१८r

…,
३

‘

A.‘

I
’ I ‘
I GNA
U RE

.fl

Infill-:1 हैं:, ८ ८
I

I

I “A a .-

.

1;:

प०18

1412

प०1ता१11] l 1 )

r१. '

L' 'n :1 Ir {J 413C
रै 1‘
:a ‘3

I. i प V}
.
.
S E R I E your listening pleasure.

'

Dre . I L b“

h, aid:

1 I
‘hlrL , I
it‘: f
t

swan Lu: 6.1 get

U'YU’ 5“ Lu!
r
um

mmer night

"झापा Gauﬁ Munjﬂﬂ

15 Iowan!» drilling]
Offer/minmlldunlym

॰
VOLUME II (L97002)
.
Raga MNHWW
.I
R

.

I

mmmu]

D it ( । f r

gcm so".

""Hhmd'v‘mujy

I

‘ U )3

CL

~ ‘1;

U

Lb” '

a

.it'a In [(‘HMU d“

payablrlnMLlSIC
TODAY Write to MUSIC

r you x‘ (J r l x 11L“ M:

IODAYPOBux 29, New
Drllu110001,!vlllivuur

‘ r" "धा" “L. 1" ‘ :
4m 1011 आपा! be»

1I .

urdw, mmllanrr, umm'

( ,; ,2 _ H I

ndI

(h } L- _

anilmmlmxmidn’“
.

Raga Bhuiravi Bhutiyar

Sic at .‘

k

'ﬂ tisch “I; l dL‘lI

Or (lb/l yum Ill/LINN!

.u

6

'd
blur '

ac r 1 bgcsmzdlu

Jrlwrry CIu-qw/Dn

aga

1811.

ru

l’li'asralluwﬁ-b warhﬁvr

0(c

A
me n'

‘

[ml/u Cuu‘cllrs/CD

tum quUi-I

d L' r ] an;

is

K

" “ ‘ ।
v “
I Ube 110 ML

l I‘ln"

"m" WWW” Add“

Ri-xnlun'dPml/Luum'r

Han'
Vol
H:13 I“
'हुअ
I

DOC h

Raga Chamlranamlan

c

: u c! t n l

जि:',

..

so H)

Raga Jogiya Kalingra

dc“

‘

Please note .' R» (75 per

(mum/[b 3५5 क्या CD

"
’

.

LsPecmuyfor

iI (

:u 'I'buem at,

1

१ i । u है - ८

रा“ १"
1१
१आ
८
“i
f—
m
1'31? [WHO

dcu Vsrumm'

.- ५

५

माणा rum“;

The deep—toned sarod of

:

m..

-\

MusmToday. . .

क्तिद्वाचावृ'च्चा‘पृहाँन्धा
') रे' । e '1 l o n

हुतु

भा if “p' urtn
- sc‘m
i

c

०

I

'i kn A), 151‘
' ill,“
.७

f

'दुहुँ

! ‘ rf’'-

x. आगाँ क्या" 1 ’4

crlcbmtctu
h
c
u
L
”
C
“
Stufﬂibﬁcrrv “-

३१ grove“) (Jr-x
drum-an Mr
our A r g L' n i । x
’ rr ed on Mr L
in van Formal,

पुट.
r
u
m
।
J6
” खीसा… ‘

krcuu-u Misste-

U 513035..

5 u A 1 » Ir 5 H Al C r u [I h A t s

yaxe

':
Regu'.rung m

ngurbutr L

inlerLal‘.) u
ialameriknncr its!

soqu wqu

blunlca wu‘n
A r 2, e 1 l 3 : i :1...
3mm;

Laue."

3““ WI: ८१'
,c
N (:3.H :.; . .
.-: Vr‘l: ८.:
.८ y'
‘ H
' ३ 11:" ' ' ३' ।

I‘m

we Fﬂhrwwimam)

"

.

dw ‘vtluugiﬁrkirr. um. u-vnt‘r
.nb
t 'u wruwgvnL. “Miwlie
k u. ' Y
n"पी;' . 5:श्न ; रा:3र
५०n1"at} ३१:"कीinहै ' जी
1'३३-३३'३३४

है-ब',

.

,

L“

zu Iii-rgmgig'h'i 4
mo (दुड्डादृशांदृ ५1:७1५

.0

“NEH”; 1” “TL”;

Uie geluulo Turmcru nut dun 51...“, what,
_.a .31 .1.~
Unndrmutrn aiodorsebrunt. Do: 54' thuludcn m luucrordguthch ‘Loth. we Abw-chubcmn “er web
nod: 1m Lulc don
hcnuﬁfn Tue! die Fen-nth! in Annn

(Hm-r ५ x
.. tun ‘- [ दृ है ‘
l 59;' “we
l ' lls
"
dmt ' AC32
' kg-[Hiu टू U 31७ ५
। It p
~
frOhstCCk ४१३८1०५३१3७ Lm'l
{Huh-«'70 y' ५ ५’
Iv

‘

‘

,

\

मैं ~

चं"
1

...

